
  xtb     10092011413D
 xtb: 6.3.3 (5b13467)
 59 59  0     0  0            999 V2000
   -0.5526    2.2742    1.3524 c   0  0  0  0  0  0  0  0  0  0  0  0
    0.0455    0.8693   -0.6033 c   0  0  0  0  0  0  0  0  0  0  0  0
    0.0014    1.0739    0.8081 c   0  0  0  0  0  0  0  0  0  0  0  0
    0.5863    0.0834    1.7187 c   0  0  0  0  0  0  0  0  0  0  0  0
   -0.0179   -0.0444    3.0879 c   0  0  0  0  0  0  0  0  0  0  0  0
    2.8816    0.1946    0.6935 c   0  0  0  0  0  0  0  0  0  0  0  0
    3.3260   -1.0420   -0.0991 c   0  0  0  0  0  0  0  0  0  0  0  0
    4.5064    0.1594   -1.8115 c   0  0  0  0  0  0  0  0  0  0  0  0
    5.1493   -2.0697   -1.2513 c   0  0  0  0  0  0  0  0  0  0  0  0
    0.1738    0.8837    3.6262 h   0  0  0  0  0  0  0  0  0  0  0  0
    0.4160   -0.8816    3.6307 h   0  0  0  0  0  0  0  0  0  0  0  0
   -1.0947   -0.1590    3.0343 h   0  0  0  0  0  0  0  0  0  0  0  0
    3.4540   -1.8736    0.6022 h   0  0  0  0  0  0  0  0  0  0  0  0
    2.5404   -1.3080   -0.8230 h   0  0  0  0  0  0  0  0  0  0  0  0
    2.4426    0.9368    0.0311 h   0  0  0  0  0  0  0  0  0  0  0  0
    2.2796   -0.7118    2.4569 h   0  0  0  0  0  0  0  0  0  0  0  0
    3.7636    0.6263    1.1779 h   0  0  0  0  0  0  0  0  0  0  0  0
    3.7481   -0.1107   -2.5598 h   0  0  0  0  0  0  0  0  0  0  0  0
    5.4724    0.2482   -2.3054 h   0  0  0  0  0  0  0  0  0  0  0  0
    4.2474    1.1263   -1.3886 h   0  0  0  0  0  0  0  0  0  0  0  0
    4.5012   -2.5441   -2.0048 h   0  0  0  0  0  0  0  0  0  0  0  0
    6.1220   -1.8782   -1.7016 h   0  0  0  0  0  0  0  0  0  0  0  0
    5.2849   -2.7638   -0.4219 h   0  0  0  0  0  0  0  0  0  0  0  0
    1.9194   -0.1227    1.7195 n   0  0  0  0  0  0  0  0  0  0  0  0
    4.6082   -0.8228   -0.7490 n   0  0  0  0  0  0  0  0  0  0  0  0
   -0.7202    2.5348    2.5397 o   0  0  0  0  0  0  0  0  0  0  0  0
    0.5493   -0.1243   -1.1490 o   0  0  0  0  0  0  0  0  0  0  0  0
   -0.0984   -1.5902    0.9292 n   0  0  0  0  0  0  0  0  0  0  0  0
   -0.5356    1.7407   -1.4546 o   0  0  0  0  0  0  0  0  0  0  0  0
   -0.8577    3.3496    0.3109 c   0  0  0  0  0  0  0  0  0  0  0  0
   -1.4225    2.7492   -0.9670 c   0  0  0  0  0  0  0  0  0  0  0  0
   -1.5156    3.7931   -2.0798 c   0  0  0  0  0  0  0  0  0  0  0  0
   -1.9138    3.3358   -2.9814 h   0  0  0  0  0  0  0  0  0  0  0  0
   -2.1645    4.6088   -1.7740 h   0  0  0  0  0  0  0  0  0  0  0  0
   -0.5275    4.1875   -2.3023 h   0  0  0  0  0  0  0  0  0  0  0  0
   -2.7978    2.1217   -0.7103 c   0  0  0  0  0  0  0  0  0  0  0  0
   -3.5223    2.8958   -0.4741 h   0  0  0  0  0  0  0  0  0  0  0  0
   -3.1271    1.5825   -1.5956 h   0  0  0  0  0  0  0  0  0  0  0  0
   -2.7460    1.4279    0.1262 h   0  0  0  0  0  0  0  0  0  0  0  0
    0.0781    3.8734    0.0937 h   0  0  0  0  0  0  0  0  0  0  0  0
   -1.5552    4.0662    0.7447 h   0  0  0  0  0  0  0  0  0  0  0  0
    0.2684   -1.3284   -0.0055 h   0  0  0  0  0  0  0  0  0  0  0  0
    0.3785   -2.4085    1.2895 h   0  0  0  0  0  0  0  0  0  0  0  0
   -1.5420   -1.7438    0.8693 c   0  0  0  0  0  0  0  0  0  0  0  0
   -1.9690   -0.7365    0.8258 h   0  0  0  0  0  0  0  0  0  0  0  0
   -1.8894   -2.2292    1.7837 h   0  0  0  0  0  0  0  0  0  0  0  0
   -1.9900   -2.5199   -0.3708 c   0  0  0  0  0  0  0  0  0  0  0  0
   -1.4897   -2.0765   -1.2353 h   0  0  0  0  0  0  0  0  0  0  0  0
   -3.5035   -2.4720   -0.6037 c   0  0  0  0  0  0  0  0  0  0  0  0
   -1.6677   -3.5616   -0.2924 h   0  0  0  0  0  0  0  0  0  0  0  0
   -3.8167   -1.4219   -0.6069 h   0  0  0  0  0  0  0  0  0  0  0  0
   -4.2698   -3.2050    0.4952 c   0  0  0  0  0  0  0  0  0  0  0  0
   -3.8340   -3.0782   -1.9663 c   0  0  0  0  0  0  0  0  0  0  0  0
   -3.3130   -2.5465   -2.7590 h   0  0  0  0  0  0  0  0  0  0  0  0
   -4.9025   -3.0219   -2.1602 h   0  0  0  0  0  0  0  0  0  0  0  0
   -3.5345   -4.1237   -1.9994 h   0  0  0  0  0  0  0  0  0  0  0  0
   -4.1271   -2.7281    1.4613 h   0  0  0  0  0  0  0  0  0  0  0  0
   -3.9375   -4.2390    0.5646 h   0  0  0  0  0  0  0  0  0  0  0  0
   -5.3347   -3.2042    0.2742 h   0  0  0  0  0  0  0  0  0  0  0  0
  1  3  4  0  0  0  0
  2  3  4  0  0  0  0
  3  4  1  0  0  0  0
  4  5  1  0  0  0  0
  6  7  1  0  0  0  0
  5 10  1  0  0  0  0
  5 11  1  0  0  0  0
  5 12  1  0  0  0  0
  7 13  1  0  0  0  0
  7 14  1  0  0  0  0
  6 15  1  0  0  0  0
  6 17  1  0  0  0  0
  8 18  1  0  0  0  0
  8 19  1  0  0  0  0
  8 20  1  0  0  0  0
  9 21  1  0  0  0  0
  9 22  1  0  0  0  0
  9 23  1  0  0  0  0
  4 24  4  0  0  0  0
  6 24  1  0  0  0  0
 16 24  1  0  0  0  0
  7 25  1  0  0  0  0
  8 25  1  0  0  0  0
  9 25  1  0  0  0  0
  1 26  2  0  0  0  0
  2 27  2  0  0  0  0
  4 28  1  0  0  0  0
  2 29  1  0  0  0  0
  1 30  1  0  0  0  0
 29 31  1  0  0  0  0
 30 31  1  0  0  0  0
 31 32  1  0  0  0  0
 32 33  1  0  0  0  0
 32 34  1  0  0  0  0
 32 35  1  0  0  0  0
 31 36  1  0  0  0  0
 36 37  1  0  0  0  0
 36 38  1  0  0  0  0
 36 39  1  0  0  0  0
 30 40  1  0  0  0  0
 30 41  1  0  0  0  0
 28 42  1  0  0  0  0
 28 43  1  0  0  0  0
 28 44  1  0  0  0  0
 44 45  1  0  0  0  0
 44 46  1  0  0  0  0
 44 47  1  0  0  0  0
 47 48  1  0  0  0  0
 47 49  1  0  0  0  0
 47 50  1  0  0  0  0
 49 51  1  0  0  0  0
 49 52  1  0  0  0  0
 49 53  1  0  0  0  0
 53 54  1  0  0  0  0
 53 55  1  0  0  0  0
 53 56  1  0  0  0  0
 52 57  1  0  0  0  0
 52 58  1  0  0  0  0
 52 59  1  0  0  0  0
M  END
