40

C         -0.51528        1.67197        1.75087
C          0.51673        0.67308       -0.30805
C          0.21621        0.59045        1.09542
C          0.56653       -0.60256        1.82552
C         -0.10960       -0.93429        3.13126
C          2.97553       -0.54901        1.09961
C          3.44713       -1.40977       -0.07536
C          3.89749        0.57481       -1.56465
C          4.87686       -1.62698       -2.06831
H          0.22299       -0.22482        3.89323
H          0.15784       -1.95135        3.43610
H         -1.19105       -0.84260        3.06216
H          3.95451       -2.31324        0.27499
H          2.59061       -1.66454       -0.69580
H          2.68952        0.45147        0.77719
H          2.03128       -1.84116        2.44463
H          3.78071       -0.44623        1.83847
H          2.89857        0.37491       -1.95826
H          4.58938        0.90564       -2.33907
H          3.83369        1.33004       -0.78283
H          4.00995       -1.83726       -2.69602
H          5.65617       -1.13952       -2.65386
H          5.25567       -2.54804       -1.62538
N          1.82664       -1.14351        1.74071
N          4.43441       -0.70280       -0.97766
O         -0.98062        1.63000        2.87912
O          1.07170       -0.23518       -0.95027
O          0.19293        1.76788       -1.01926
C         -0.59225        2.95810        0.94170
C         -0.81722        2.69573       -0.54031
C         -0.61823        3.95150       -1.37249
H         -0.74610        3.72629       -2.43468
H         -1.35059        4.71066       -1.08464
H          0.38516        4.35762       -1.21783
C         -2.18472        2.07166       -0.80399
H         -2.97998        2.76910       -0.52611
H         -2.28623        1.82545       -1.86491
H         -2.31583        1.15560       -0.21895
H          0.35313        3.50008        1.07803
H         -1.39429        3.57364        1.35597
